data/crac/crac-io/crac-io-fb-constraint/src/test/resources/network/TestCase12Nodes_for_thresholds_test.uct
##C 2007.05.01
##N
##ZBE
BBE1AA11 BE1          0 2 400.00 2500.00 0.00000 -1500.0 0.00000 9000.00 -9000.0 9000.00 -9000.0
BBE2AA11 BE2          0 2 400.00 1000.00 0.00000 -3000.0 0.00000 9000.00 -9000.0 9000.00 -9000.0
BBE3AA11 BE3          0 2 400.00 1500.00 0.00000 -2500.0 0.00000 9000.00 -9000.0 9000.00 -9000.0
##ZDE
DDE1AA11 DE1          0 2 400.00 3500.00 0.00000 -2500.0 0.00000 9000.00 -9000.0 9000.00 -9000.0
DDE2AA11 DE2          0 2 400.00 3000.00 0.00000 -2000.0 0.00000 9000.00 -9000.0 9000.00 -9000.0
DDE3AA11 DE3          0 2 400.00 2000.00 0.00000 -1500.0 0.00000 9000.00 -9000.0 9000.00 -9000.0
##ZFR
FFR1AA11 FR1          0 2 400.00 1000.00 0.00000 -2000.0 0.00000 9000.00 -9000.0 9000.00 -9000.0
FFR2AA11 FR2          0 2 400.00 3500.00 0.00000 -2000.0 0.00000 9000.00 -9000.0 9000.00 -9000.0
FFR3AA11 FR3          0 2 400.00 1500.00 0.00000 -3000.0 0.00000 9000.00 -9000.0 9000.00 -9000.0
##ZNL
NNL1AA11 NL1          0 2 400.00 1000.00 0.00000 -1500.0 0.00000 9000.00 -9000.0 9000.00 -9000.0
NNL2AA11 NL2          0 2 400.00 1000.00 0.00000 -500.00 0.00000 9000.00 -9000.0 9000.00 -9000.0
NNL3AA11 NL3          0 2 400.00 2500.00 0.00000 -2000.0 0.00000 9000.00 -9000.0 9000.00 -9000.0
##ZXX
X_DEFR11              1 0        0.00000 0.00000 0.00000 0.00000
X_NLDE11              1 0        0.00000 0.00000 0.00000 0.00000
X_BEFR11              1 0        0.00000 0.00000 0.00000 0.00000
X_NLBE11              1 0        0.00000 0.00000 0.00000 0.00000

##L
BBE1AA11 BBE2AA11 5 8 0.0895 0.9516 11.19391   2119 DI 380 5 GRA
BBE1AA11 BBE3AA11 5 0 1.6601 6.1801 47.07555    714 DI 150 25 DR
FFR1AA11 FFR2AA11 7 0 0.2200 1.1200 8.000000    959 DI 150 217 B
FFR1AA11 FFR3AA11 1 0 0.0000 10.000 0.000000   5000
FFR2AA11 FFR3AA11 1 0 0.3800 3.0211 5484.000   2117 DI 150 180 A
DDE1AA11 DDE2AA11 1 0 1.4010 7.4470 57.76700    937 N/A
DDE1AA11 DDE3AA11 1 0 3.0250 6.4009 41.32231    488 118
DDE2AA11 DDE3AA11 1 0 2.3040 5.0041 32.64463    470 N/A
NNL1AA11 NNL2AA11 1 0 6.4977 13.733 89.25620    488 119/2
NNL1AA11 NNL3AA11 1 0 4.6790 7.9960 48.67800    373 N/A
NNL2AA11 NNL3AA11 1 0 0.0000 10.000 0.000000   5000
FFR2AA11 X_DEFR11 1 0 0.0000 5.0000 0.000000   5000
DDE3AA11 X_DEFR11 1 0 0.0000 5.0000 0.000000   5000
DDE2AA11 X_NLDE11 1 0 0.0000 5.0000 0.000000   5000
NNL3AA11 X_NLDE11 1 0 0.0000 5.0000 0.000000   5000
NNL2AA11 X_NLBE11 1 0 0.0000 5.0000 0.000000   5000
BBE3AA11 X_NLBE11 1 0 0.0000 5.0000 0.000000   5000
BBE2AA11 X_BEFR11 1 0 0.0000 5.0000 0.000000   5000
FFR3AA11 X_BEFR11 1 0 0.0000 5.0000 0.000000   5000

##T
BBE2AA11 BBE3AA11 1 0 400.0 400.0 1000. 0.0000 10.000 0.000000 0.0	     5000 PST
##R
BBE2AA11 BBE3AA11 1                    -0.68 90.00 16 0         SYMM
